  Page 1                                    Thu Jul 10 08:05:51 2025

  ******************************************************************
  *                           E P A N E T                          *
  *                   Hydraulic and Water Quality                  *
  *                   Analysis for Pipe Networks                   *
  *                         Version 2.2                            *
  ******************************************************************
  
  Analysis begun Thu Jul 10 08:05:51 2025

  Analysis ended Thu Jul 10 08:05:51 2025
