  Page 1                                    Wed Jul 09 15:27:53 2025

  ******************************************************************
  *                           E P A N E T                          *
  *                   Hydraulic and Water Quality                  *
  *                   Analysis for Pipe Networks                   *
  *                         Version 2.2                            *
  ******************************************************************
  
  Analysis begun Wed Jul 09 15:27:53 2025

  Analysis ended Wed Jul 09 15:27:53 2025
