  Page 1                                    Wed Aug 20 10:12:45 2025

  ******************************************************************
  *                           E P A N E T                          *
  *                   Hydraulic and Water Quality                  *
  *                   Analysis for Pipe Networks                   *
  *                         Version 2.2                            *
  ******************************************************************
  
  Analysis begun Wed Aug 20 10:12:45 2025

  Analysis ended Wed Aug 20 10:12:45 2025
